/*---------------------------------------------------------------------------*\
  =========                 |
  \\      /  F ield         | OpenFOAM: The Open Source CFD Toolbox
   \\    /   O peration     | Website:  https://openfoam.org
    \\  /    A nd           | Version:  9
     \\/     M anipulation  |
\*---------------------------------------------------------------------------*/
Build  : 9-b456138dc4bc
Exec   : surfaceCheck -blockMesh bluffBody.obj
Date   : May 08 2022
Time   : 23:26:04
Host   : "DESKTOP-N81QLK0"
PID    : 26650
I/O    : uncollated
Case   : /home/anthonym/OpenFOAM/anthonym-9/run/bluffBody/constant/geometry
nProcs : 1
sigFpe : Enabling floating point exception trapping (FOAM_SIGFPE).
fileModificationChecking : Monitoring run-time modified files using timeStampMaster (fileModificationSkew 10)
allowSystemOperations : Allowing user-supplied system call operations

// * * * * * * * * * * * * * * * * * * * * * * * * * * * * * * * * * * * * * //
Reading surface from "bluffBody.obj" ...

Statistics:
Triangles    : 124
Vertices     : 64
Bounding Box : (0 0 0) (1346.4 326 314)

// blockMeshDict info

vertices
(
    (0 0 0)
    (1346.4 0 0)
    (1346.4 326 0)
    (0 326 0)
    (0 0 314)
    (1346.4 0 314)
    (1346.4 326 314)
    (0 326 314)
);

blocks
(
    hex (0 1 2 3 4 5 6 7) (10 10 10) simpleGrading (1 1 1)
);

edges
();
patches
();

// end blockMeshDict info

Region	Size
------	----
patch0	124


Surface has no illegal triangles.

Triangle quality (equilateral=1, collapsed=0):
    0 .. 0.05  : 0.403226
    0.05 .. 0.1  : 0.258065
    0.1 .. 0.15  : 0
    0.15 .. 0.2  : 0
    0.2 .. 0.25  : 0.177419
    0.25 .. 0.3  : 0.016129
    0.3 .. 0.35  : 0
    0.35 .. 0.4  : 0
    0.4 .. 0.45  : 0.0806452
    0.45 .. 0.5  : 0
    0.5 .. 0.55  : 0
    0.55 .. 0.6  : 0
    0.6 .. 0.65  : 0.0322581
    0.65 .. 0.7  : 0.016129
    0.7 .. 0.75  : 0
    0.75 .. 0.8  : 0
    0.8 .. 0.85  : 0
    0.85 .. 0.9  : 0
    0.9 .. 0.95  : 0.00806452
    0.95 .. 1  : 0.00806452

    min 2.56828e-06 for triangle 31
    max 0.997207 for triangle 11

Edges:
    min 5 for edge 61 points (1346.4 0 0)(1346.4 0 5)
    max 1141.34 for edge 5 points (1346.4 0 0)(252.602 326 0)

Checking for points less than 1e-6 of bounding box ((1346.4 326 314) metre) apart.
Found 0 nearby points.

Surface is closed. All edges connected to two faces.

Number of unconnected parts : 1

Number of zones (connected area with consistent normal) : 1


End

